[General]
network = Network
sim-time-limit = 365d
simtime-resolution = s 
**.allocate.resourceModuleName = "resourcePool" 
**.delay.delay = uniform(20d, 80d) 
**.deallocate.resourceModuleName = "resourcePool" 
**.allocate1.resourceModuleName = "resourcePool1" 
**.delay1.delay = uniform(10d, 30d) 
**.deallocate1.resourceModuleName = "resourcePool1" 
**.source.interArrivalTime = exponential(8d)

[Config Config11_1]
**.resourcePool.amount = 11
**.resourcePool1.amount = 1

[Config Config10_2]
**.resourcePool.amount = 10 
**.resourcePool1.amount = 2

[Config Config9_3]
**.resourcePool.amount = 9
**.resourcePool1.amount = 3

[Config Config8_4]
**.resourcePool.amount = 8 
**.resourcePool1.amount = 4

[Config Config7_5]
**.resourcePool.amount = 7 
**.resourcePool1.amount = 5

[Config Config6_6]
**.resourcePool.amount = 6 
**.resourcePool1.amount = 6

[Config Config5_7]
**.resourcePool.amount = 5
**.resourcePool1.amount = 7

[Config Config4_8]
**.resourcePool.amount = 4
**.resourcePool1.amount = 8

[Config Config3_9]
**.resourcePool.amount = 3 
**.resourcePool1.amount = 9

[Config Config2_10]
**.resourcePool.amount = 2
**.resourcePool1.amount = 10

[Config Config1_11]
**.resourcePool.amount = 1
**.resourcePool1.amount = 11

[Config Iteration]
**.resourcePool.amount = ${i=1..11}
**.resourcePool1.amount = ${12-$i}